! *** EVALUATION SOFTWARE GENERATES COMPRESSED IDF - TO OBTAIN READABLE IDF PLEASE PURCHASE A LICENCE ***
! File generated by DesignBuilder - 4.2.0.054 03/06/2016 - 16:23:12
! Source file: \\AIEDISK\AI Environnement\PROJETS\25 R&D\Développement de modèles\Cas d'étude\Residential\Adernos\Maison 6 zones.dsb

Version, 8.1.0.009;

RunPeriod,
Maison 6 zones,
1,1,
02,15,
UseWeatherFile,
No,
No,
Yes,
Yes,
Yes,
1;

RunPeriodControl:DaylightSavingTime, Last Sunday in March,Last Sunday in October;


Site:Location,Maison 6 zones,
44.83,
-0.68,
1,
61;

Site:GroundTemperature:BuildingSurface,
18,
18,
18,
18,
18,
18,
18,
18,
18,
18,
18,
18;

Site:GroundTemperature:Deep,
14,
14,
14,
14,
14,
14,
14,
14,
14,
14,
14,
14;

Site:GroundTemperature:Shallow,
14,
14,
14,
14,
14,
14,
14,
14,
14,
14,
14,
14;

Site:GroundTemperature:FCfactorMethod,
6.58,
7.82,
10.24,
12.54,
16.88,
19.16,
19.79,
18.63,
15.96,
12.62,
9.34,
7.17;

Site:GroundReflectance, 
0.2,
0.2,
0.2,
0.2,
0.2,
0.2,
0.2,
0.2,
0.2,
0.2,
0.2,
0.2;

Site:GroundReflectance:SnowModifier,
2.0,
2.0;

ProgramControl,
1;

SimulationControl,
Yes,
Yes,
No,
No,
Yes;


SizingPeriod:DesignDay, Summer Design Day in Maison 6 zones Juil,
7,
15,
SummerDesignDay,
32.8,
11,
,
,
WetBulb,
21.3,
,
,
,
,
100594.3,
0,
0,
0,
0,
1,
,
,
,
,
,
0.98;

SizingPeriod:DesignDay, Winter Design Day in Maison 6 zones,
1,
15,
WinterDesignDay,
-3.8,
0,
,
,
WetBulb,
-3.8,
,
,
,
,
100594.3,
0,
0,
0,
0,
0,
,
,
,
,
,
0;

Timestep, 12;

ConvergenceLimits,
1,
20;

AirflowNetwork:MultiZone:Surface:Crack, 
DefaultCrack, 
0.00000000001,
0.66,
Reference Crack Conditions;

ScheduleTypeLimits, Any Number;                         ! Not limited
ScheduleTypeLimits, Fraction,     0.0, 1.0, CONTINUOUS;
ScheduleTypeLimits, Temperature,  -60, 200, CONTINUOUS;
ScheduleTypeLimits, Control Type,   0,   4, DISCRETE;
ScheduleTypeLimits, On/Off,         0,   1, DISCRETE;

Schedule:Compact, 
      On,                                         ! Name
      Any Number,                                 ! Type
      Through: 12/31,                             ! Type
      For: AllDays,                               ! All days in year
      Until: 24:00,                               ! All hours in day
       1;     

Schedule:Compact, 
      Off,                                        ! Name
      Any Number,                                 ! Type
      Through: 12/31,                             ! Type
      For: AllDays,                               ! All days in year
      Until: 24:00,                               ! All hours in day
       0;     

Schedule:Compact, 
      Work efficiency,                            ! Name
      Any Number,                                 ! Type
      Through: 12/31,                             ! Type
      For: AllDays,                               ! All days in year
      Until: 24:00,                               ! All hours in day
       0;     
Schedule:Compact,
      OpaqueShade,                                ! Name
      Any Number,                                 ! Type
      Through: 12/31,                             ! Type
      For: AllDays,                               ! All days in year
      Until: 24:00,                               ! All hours in day
       0;     
       
Schedule:Compact,
    Zone Comfort Control Type Sched,              !- Name
    Control Type,                                 !- Schedule Type Limits Name
    Through: 12/31,                               !- Field 1
    For: AllDays,                                 !- Field 2
    Until: 24:00,                                 !- Field 3
    4;                                            !- Field 4

Schedule:Compact,
    Design Days Only,                             !- Name
    Any Number,                                   !- Schedule Type Limits Name
    Through: 12/31,                               !- Field 1
    For: SummerDesignDay WinterDesignDay,         !- Field 2
    Until: 24:00,                                 !- Field 3
    1,                                            !- Field 4
    For: AllOtherDays,                            !- Field 2
    Until: 24:00,                                 !- Field 3
    0;
      
! off heating day
Schedule:Day:Hourly,  0, Any Number,
   0,0,0,0,0,0,0,0,0,0,0,0,0,0,0,0,0,0,0,0,0,0,0,0;

! off cooling day
Schedule:Day:Hourly,  50, Any Number,
   50,50,50,50,50,50,50,50,50,50,50,50,50,50,50,50,50,50,50,50,50,50,50,50;

! used in seasonal schedules
Schedule:Day:Hourly,  Off, Fraction,
   0,0,0,0,0,0,0,0,0,0,0,0,0,0,0,0,0,0,0,0,0,0,0,0;

Schedule:Week:Daily, Off,
   Off,Off,Off,Off,
   Off,Off,Off,Off,
   Off,Off,Off,Off;

! -------------------- Control type schedules (for heating & cooling) ----------------------

Schedule:Day:Hourly, Summer Control Type Day Sch, Control Type,
   4,4,4,4,4,4,4,4,4,4,4,4,4,4,4,4,4,4,4,4,4,4,4,4;

Schedule:Day:Hourly, Winter Control Type Day Sch, Control Type,
   4,4,4,4,4,4,4,4,4,4,4,4,4,4,4,4,4,4,4,4,4,4,4,4;

Schedule:Day:Hourly, Summer Control Type Day Sch - cool, Control Type,
   2,2,2,2,2,2,2,2,2,2,2,2,2,2,2,2,2,2,2,2,2,2,2,2;

Schedule:Day:Hourly, Winter Control Type Day Sch - heat, Control Type,
   1,1,1,1,1,1,1,1,1,1,1,1,1,1,1,1,1,1,1,1,1,1,1,1;

Schedule:Week:Daily, Summer Control Type Week Sch,
   Summer Control Type Day Sch,Summer Control Type Day Sch,Summer Control Type Day Sch,
   Summer Control Type Day Sch,Summer Control Type Day Sch,Summer Control Type Day Sch,
   Summer Control Type Day Sch,Summer Control Type Day Sch,Summer Control Type Day Sch,
   Summer Control Type Day Sch,Summer Control Type Day Sch,Summer Control Type Day Sch;

Schedule:Week:Daily, Winter Control Type Week Sch,
   Winter Control Type Day Sch,Winter Control Type Day Sch,Winter Control Type Day Sch,
   Winter Control Type Day Sch,Winter Control Type Day Sch,Winter Control Type Day Sch,
   Winter Control Type Day Sch,Winter Control Type Day Sch,Winter Control Type Day Sch,
   Winter Control Type Day Sch,Winter Control Type Day Sch,Winter Control Type Day Sch;

Schedule:Week:Daily, Summer Control Type Week Sch - cool,
   Summer Control Type Day Sch - cool,Summer Control Type Day Sch - cool,Summer Control Type Day Sch - cool,
   Summer Control Type Day Sch - cool,Summer Control Type Day Sch - cool,Summer Control Type Day Sch - cool,
   Summer Control Type Day Sch - cool,Summer Control Type Day Sch - cool,Summer Control Type Day Sch - cool,
   Summer Control Type Day Sch - cool,Summer Control Type Day Sch - cool,Summer Control Type Day Sch - cool;

Schedule:Week:Daily, Winter Control Type Week Sch - heat,
   Winter Control Type Day Sch - heat,Winter Control Type Day Sch - heat,Winter Control Type Day Sch - heat,
   Winter Control Type Day Sch - heat,Winter Control Type Day Sch - heat,Winter Control Type Day Sch - heat,
   Winter Control Type Day Sch - heat,Winter Control Type Day Sch - heat,Winter Control Type Day Sch - heat,
   Winter Control Type Day Sch - heat,Winter Control Type Day Sch - heat,Winter Control Type Day Sch - heat;

!Material:InfraredTransparent,
!IRTMaterial; !- Name

!Construction,
!IRTSurface,  !- Name
!IRTMaterial; !- Outside Layer





Material:NoMass, 
LinearBridgingLayer,                  ! Material Name
Rough,                                ! Roughness
1 ,                                   ! Resistance {M**2K/W}
0.0100000 ,                           ! Thermal Absorptance
0.0100000 ,                           ! Solar Absorptance
0.0100000 ;                           ! Visible Absorptance

Construction,
LinearBridgingConstruction,           !- Name
LinearBridgingLayer;                  !- Layer

Schedule:Compact,
TypOperativeTempControlSch,
Temperature,
Through: 31 Dec,
For: SummerDesignDay WinterDesignDay,
Until: 24:00, 0.0,
For: AllOtherDays,
Until: 24:00, 0.5;

Schedule:Compact, AirVelocitySchedule,
Any Number,
Through: 12/31,
For: AllDays,
Until: 24:00,
.137;
Material:InfraredTransparent,
IRTMaterial; !- Name

Construction,
IRTSurface,  !- Name
IRTMaterial; !- Outside Layer


AirflowNetwork:SimulationControl,
VENT,
MultizoneWithoutDistribution,
Input,
Cp Data,
OpeningHeight,
LowRise,
1000,
ZeroNodePressures,
.0001,
.000001,
-0.5,
0,
1;
Schedule:Compact,
2864,
Fraction,
Through: 31 Dec,
For: Weekdays SummerDesignDay,
Until: 07:00, 0,
Until: 08:00, 0.25,
Until: 09:00, 0.5,
Until: 12:00, 1,
Until: 14:00, 0.75,
Until: 17:00, 1,
Until: 18:00, 0.5,
Until: 19:00, 0.25,
Until: 24:00, 0,
For: Weekends,
Until: 24:00, 0,
For: Holidays,
Until: 24:00, 0,
For: WinterDesignDay AllOtherDays,
Until: 24:00, 0;

Schedule:Compact,
3324,
Fraction,
Through: 31 Dec,
For: Weekdays SummerDesignDay,
Until: 06:00, 0,
Until: 07:00, 0.25,
Until: 09:00, 1,
Until: 10:00, 0.25,
Until: 18:00, 0,
Until: 19:00, 0.5,
Until: 21:00, 1,
Until: 22:00, 0.3,
Until: 24:00, 0,
For: Weekends,
Until: 06:00, 0,
Until: 07:00, 0.25,
Until: 09:00, 1,
Until: 10:00, 0.25,
Until: 18:00, 0,
Until: 19:00, 0.5,
Until: 21:00, 1,
Until: 22:00, 0.3,
Until: 24:00, 0,
For: Holidays,
Until: 06:00, 0,
Until: 07:00, 0.25,
Until: 09:00, 1,
Until: 10:00, 0.25,
Until: 18:00, 0,
Until: 19:00, 0.5,
Until: 21:00, 1,
Until: 22:00, 0.3,
Until: 24:00, 0,
For: WinterDesignDay AllOtherDays,
Until: 24:00, 0;

Schedule:Compact,
3329,
Fraction,
Through: 31 Dec,
For: Weekdays SummerDesignDay,
Until: 07:00, 1,
Until: 08:00, 0.5,
Until: 09:00, 0.25,
Until: 22:00, 0,
Until: 23:00, 0.25,
Until: 24:00, 0.75,
For: Weekends,
Until: 07:00, 1,
Until: 08:00, 0.5,
Until: 09:00, 0.25,
Until: 22:00, 0,
Until: 23:00, 0.25,
Until: 24:00, 0.75,
For: Holidays,
Until: 07:00, 1,
Until: 08:00, 0.5,
Until: 09:00, 0.25,
Until: 22:00, 0,
Until: 23:00, 0.25,
Until: 24:00, 0.75,
For: WinterDesignDay AllOtherDays,
Until: 24:00, 0;

Schedule:Compact,
3334,
Fraction,
Through: 31 Dec,
For: Weekdays SummerDesignDay,
Until: 07:00, 0,
Until: 10:00, 1,
Until: 19:00, 0,
Until: 23:00, 0.2,
Until: 24:00, 0,
For: Weekends,
Until: 07:00, 0,
Until: 10:00, 1,
Until: 19:00, 0,
Until: 23:00, 0.2,
Until: 24:00, 0,
For: Holidays,
Until: 07:00, 0,
Until: 10:00, 1,
Until: 19:00, 0,
Until: 23:00, 0.2,
Until: 24:00, 0,
For: WinterDesignDay AllOtherDays,
Until: 24:00, 0;

Schedule:Compact,
3344,
Fraction,
Through: 31 Dec,
For: Weekdays SummerDesignDay,
Until: 07:00, 0,
Until: 10:00, 1,
Until: 19:00, 0,
Until: 23:00, 0.2,
Until: 24:00, 0,
For: Weekends,
Until: 07:00, 0,
Until: 10:00, 1,
Until: 19:00, 0,
Until: 23:00, 0.2,
Until: 24:00, 0,
For: Holidays,
Until: 07:00, 0,
Until: 10:00, 1,
Until: 19:00, 0,
Until: 23:00, 0.2,
Until: 24:00, 0,
For: WinterDesignDay AllOtherDays,
Until: 24:00, 0;

Schedule:Compact,
3349,
Fraction,
Through: 31 Dec,
For: Weekdays SummerDesignDay,
Until: 16:00, 0,
Until: 18:00, 0.5,
Until: 22:00, 1,
Until: 23:00, 0.67,
Until: 24:00, 0,
For: Weekends,
Until: 16:00, 0,
Until: 18:00, 0.5,
Until: 22:00, 1,
Until: 23:00, 0.67,
Until: 24:00, 0,
For: Holidays,
Until: 16:00, 0,
Until: 18:00, 0.5,
Until: 22:00, 1,
Until: 23:00, 0.67,
Until: 24:00, 0,
For: WinterDesignDay AllOtherDays,
Until: 24:00, 0;


Schedule:Compact, 20001,
Any Number,
Through: 12/31, 
For: Weekdays Weekends SummerDesignDays,
Until: 24:00,  24,
For: WinterDesignDays,
Until: 24:00, 0,
For: AllOtherDays,
Until: 24:00,  24;  

WindowMaterial:Gas,1004,
Argon,
 .013;

WindowMaterial:Gas,Half thickness 1004,
Argon,
 .0065;


WindowMaterial:Glazing,2,
SpectralAverage,
,
.003,
.837,
.075,
.075,
.898,
.081,
.081,
.0,
.84,
.84,
.9,
1;

WindowMaterial:Glazing,40,
SpectralAverage,
,
.003,
.630,
.190,
.220,
.850,
.056,
.079,
.0,
.84,
.10,
.9,
1;

WindowMaterial:Glazing,41,
SpectralAverage,
,
.003,
.630,
.220,
.190,
.850,
.079,
.056,
.0,
.10,
.84,
.9,
1;

WindowMaterial:Blind,20001,
Horizontal,
0.025,
0.01875,
0.001,
45,
0.9,
0,
0.8,
.8,
0,
.8,
.8,
0,
.8,
.8,
0,
.8,
.8,
0,
.9,
.9,
.015,
.5,
.5,
.5,
.5,
0,
180;
Material, 1_2_3411,
Rough,
 .3099,
0.036,
160,
840,
0.9,
0.7,
0.7;

Material, 1_3_3338,
Rough,
 .1524,
2.27,
2321.4,
837.36,
0.9,
0.7,
0.7;

Material, 2_1_3377,
Rough,
 .3495,
0.036,
160,
840,
0.9,
0.7,
0.7;

Material, 2_2_3345,
Rough,
 .01,
45.28,
7824,
500,
0.9,
0.7,
0.7;

Material, 4_1_27,
Rough,
 .013,
0.25,
900,
1000,
0.9,
0.5,
0.5;

Material, 6_1_108,
Rough,
 .035,
0.19,
700,
2390,
0.9,
0.5,
0.5;

Material, 8_1_17,
Rough,
 .01,
0.5,
1300,
1000,
0.9,
0.7,
0.7;

Material, 8_2_3433,
Rough,
 .013,
0.066,
350,
1300,
0.9,
0.7,
0.7;

Material, 8_3_3521,
Rough,
 .279,
0.0355,
10,
1470,
0.9,
0.7,
0.7;

Material, 8_4_27,
Rough,
 .01,
0.25,
900,
1000,
0.9,
0.5,
0.5;

Material:NoMass, 1_RVAL_1,
Rough,
 .2201375,
0.9,
0.7,
0.7;

Construction, 1,
1_RVAL_1,
1_2_3411,
1_3_3338;

Construction, 2,
2_1_3377,
2_2_3345;

Construction, 3,
2_2_3345,
2_1_3377;
Material:NoMass, 4_RVAL_2,
Rough,
 .15,
0.9,
0.7,
0.7;

Construction, 4,
4_1_27,
4_RVAL_2,
4_1_27;
Material:NoMass, 5_RVAL_2,
Rough,
 .15,
0.9,
0.7,
0.7;

Construction, 5,
4_1_27,
5_RVAL_2,
4_1_27;

Construction, 6,
6_1_108;

Construction, 7,
6_1_108;

Construction, 8,
8_1_17,
8_2_3433,
8_3_3521,
8_4_27;

Construction, 9,
8_4_27,
8_3_3521,
8_2_3433,
8_1_17;

Construction, 10,
6_1_108;

Construction, 11,
6_1_108;
Material:NoMass, 12_RVAL_1,
Rough,
 999,
0.9,
0.7,
0.7;

Construction, 12,
12_RVAL_1;
Material:NoMass, 13_RVAL_1,
Rough,
 999,
0.9,
0.7,
0.7;

Construction, 13,
13_RVAL_1;

Construction,1001,
40,
1004,
2,
1004,
41;

Construction,2001,
20001,
40,
1004,
2,
1004,
41;

WindowProperty:ShadingControl,1001,
ExteriorBlind,
2001,
OnIfScheduleAllows,
2864,
,
Yes,
No,
,
FixedSlatAngle,
,
0;

HeatBalanceAlgorithm, 
ConductionTransferFunction,
2000;
ShadowCalculation, AverageOverDaysInFrequency, 20,  15000, SutherlandHodgman, SimpleSkyDiffuseModeling;

SurfaceConvectionAlgorithm:Inside,TARP;
SurfaceConvectionAlgorithm:Outside,DOE-2;
ZoneCapacitanceMultiplier:ResearchSpecial, 1, 1.0, 1.0, 1.0;

Building, Building,
 0,
Suburbs,
 .04,
 .4,
FullExterior,
25,
6;

GlobalGeometryRules, LowerLeftCorner, CounterClockWise, Relative;
Zone, 408,
0,
0,
0,
0,
1 ,
1,
,
 61.7128,
 17.6322,
TARP;


PEOPLE, People 408,
408,
408NumberOfOccupants,
People,
 .4044610861872,
,
,
 .3,
AUTOCALCULATE,
408AverageGains,
.0000000382,
No,
ZoneAveraged,
,
Work efficiency,
ClothingInsulationSchedule,
,
Clothing Schedule 408,
AirVelocitySchedule;

Schedule:Compact, Activity Schedule 408,
Any Number,
Through: 12/31,
For: AllDays,
Until: 24:00,  81;

Schedule:Compact, Clothing Schedule 408,
Any Number,
Through: 4/1,
For: AllDays,
Until: 24:00,  1,
Through: 9/30,
For: AllDays,
Until: 24:00,  .5,
Through: 12/31,
For: AllDays,
Until: 24:00,  1;

Lights, 408 General lighting,
408,
408LightState,
LightingLevel,
88.161,
,
,
0,
.42,
.18,
1,
ELECTRIC EQUIPMENT#408#GeneralLights;

ElectricEquipment, 408 Equipment 1,
408,
3329,
EquipmentLevel,
63.1233,
,
,
0,
.2,
0,
ELECTRIC EQUIPMENT#408#05;

Daylighting:Controls, 408,
1,
-15.402,
-7.034,
.8,
,
,
,
1,
0,
100,
300,
1,
0,
22,
0.1,
0.1,
0,
1;

AirflowNetwork:MultiZone:Zone,
408, 
Temperature,
20001,
, 
, 
, 
, 
, 
2864;


Construction:FfactorGroundFloor,
2659 - 1,
.38,
107.4576,
43.96;

BuildingSurface:Detailed, 
408_GroundFloor_0_0_0,
Floor, 2659 - 1,
408,
GroundFCfactorMethod, , 
NoSun, 
NoWind, 
0, 
4, 
-15.757292148,-5.5343123651, 0,
-18.141884248,-5.5343123651, 0,
-18.141884248,-4.0507666351, 0,
-15.757292148,-4.0507666351, 0;

BuildingSurface:Detailed, 
408_GroundFloor_0_0_1,
Floor, 2659 - 1,
408,
GroundFCfactorMethod, , 
NoSun, 
NoWind, 
0, 
4, 
-13.661884248,-9.5343123651, 0,
-18.141884248,-9.5343123651, 0,
-18.141884248,-5.5343123651, 0,
-13.661884248,-5.5343123651, 0;

BuildingSurface:Detailed, 
408_Roof_1_0_0,
Roof, 2,
408,
Outdoors, , 
SunExposed, 
WindExposed, 
0, 
4, 
-15.7572921445,-9.5343123701, 3.5,
-13.6618842445,-9.5343123701, 3.5,
-13.6618842445,-5.5343123701, 3.5,
-15.7572921445,-5.5343123701, 3.5;

AirflowNetwork:MultiZone:Surface:Crack, 
408_Roof_1_0_0, 
.0000838,
.7,
Reference Crack Conditions;

AirflowNetwork:MultiZone:Surface,
408_Roof_1_0_0, 
408_Roof_1_0_0, 
408_Roof_1_0_0, 
1; 

AirflowNetwork:MultiZone:ExternalNode,
408_Roof_1_0_0,
4.67,
408_Roof_1_0_0;

AirflowNetwork:MultiZone:WindPressureCoefficientValues,
408_Roof_1_0_0, 
Cp Data, 
-.6,
-.5,
-.4,
-.5,
-.6,
-.5,
-.4,
-.5;

BuildingSurface:Detailed, 
408_Roof_1_0_1,
Roof, 2,
408,
Outdoors, , 
SunExposed, 
WindExposed, 
0, 
4, 
-18.1418842445,-9.5343123701, 3.5,
-15.7572921445,-9.5343123701, 3.5,
-15.7572921445,-4.0507666401, 3.5,
-18.1418842445,-4.0507666401, 3.5;

AirflowNetwork:MultiZone:Surface:Crack, 
408_Roof_1_0_1, 
.0001308,
.7,
Reference Crack Conditions;

AirflowNetwork:MultiZone:Surface,
408_Roof_1_0_1, 
408_Roof_1_0_1, 
408_Roof_1_0_1, 
1; 

AirflowNetwork:MultiZone:ExternalNode,
408_Roof_1_0_1,
4.67,
408_Roof_1_0_1;

AirflowNetwork:MultiZone:WindPressureCoefficientValues,
408_Roof_1_0_1, 
Cp Data, 
-.6,
-.5,
-.4,
-.5,
-.6,
-.5,
-.4,
-.5;

BuildingSurface:Detailed, 
408_Partition_2_0_0,
Wall, 5,
408,
Surface, 418_Partition_12_0_10000, 
NoSun, 
NoWind, 
0, 
4, 
-13.661884248,-9.53431237, 0,
-13.661884248,-5.53431237, 0,
-13.661884248,-5.53431237, 3.5,
-13.661884248,-9.53431237, 3.5;

BuildingSurface:Detailed, 
418_Partition_12_0_10000,
Wall, 4,
418,
Surface, 408_Partition_2_0_0, 
NoSun, 
NoWind, 
0, 
4, 
-13.661884248,-5.53431237, 0,
-13.661884248,-9.53431237, 0,
-13.661884248,-9.53431237, 3.5,
-13.661884248,-5.53431237, 3.5;

AirflowNetwork:MultiZone:Surface:Crack, 
408_Partition_2_0_0, 
.0132679,
.75,
Reference Crack Conditions;

AirflowNetwork:MultiZone:Surface,
408_Partition_2_0_0, 
408_Partition_2_0_0, 
, 
1; 

FenestrationSurface:Detailed, 408_Partition_2_0_0_0_0_0_Door,
Door, 6,
408_Partition_2_0_0,
418_Partition_12_0_0_0_0_0_Door_10002,
0, 
, 
, 
1, 
4, 
-13.661884248,-8.69231237, .002,
-13.661884248,-8.34223417, .002,
-13.661884248,-8.34223417, 2.09312406,
-13.661884248,-8.69231237, 2.09312406;

FenestrationSurface:Detailed, 418_Partition_12_0_0_0_0_0_Door_10002,
Door, 7,
418_Partition_12_0_10000,
408_Partition_2_0_0_0_0_0_Door,
0, 
, 
, 
1, 
4, 
-13.661884248,-8.34223417, .002,
-13.661884248,-8.69231237, .002,
-13.661884248,-8.69231237, 2.09312406,
-13.661884248,-8.34223417, 2.09312406;

AirflowNetwork:MultiZone:Component:DetailedOpening, 
408_Partition_2_0_0_0_0_0_Door, 
.02,
.7,
NonPivoted,
0,
2,
0,
.65,
0,
1,
0,
1,
.65,
.025,
1,
0,
0,
0,
0,
0,
0,
0,
0,
0,
0,
0;

AirflowNetwork:MultiZone:Surface,
418_Partition_12_0_0_0_0_0_Door_10002, 
408_Partition_2_0_0_0_0_0_Door, 
, 
1, 
Temperature, 
20001, 
, 
, 
, 
, 
, 
2864;

BuildingSurface:Detailed, 
408_Partition_3_0_0,
Wall, 5,
408,
Surface, 418_Partition_11_0_10002, 
NoSun, 
NoWind, 
0, 
4, 
-13.66188425,-5.5343123651, 0,
-14.29651324,-5.5343123651, 0,
-14.29651324,-5.5343123651, 3.5,
-13.66188425,-5.5343123651, 3.5;

BuildingSurface:Detailed, 
418_Partition_11_0_10002,
Wall, 4,
418,
Surface, 408_Partition_3_0_0, 
NoSun, 
NoWind, 
0, 
4, 
-14.29651324,-5.5343123651, 0,
-13.66188425,-5.5343123651, 0,
-13.66188425,-5.5343123651, 3.5,
-14.29651324,-5.5343123651, 3.5;

AirflowNetwork:MultiZone:Surface:Crack, 
408_Partition_3_0_0, 
.0022212,
.75,
Reference Crack Conditions;

AirflowNetwork:MultiZone:Surface,
408_Partition_3_0_0, 
408_Partition_3_0_0, 
, 
1; 

BuildingSurface:Detailed, 
408_Partition_4_0_0,
Wall, 4,
408,
Surface, 440_Partition_5_0_10003, 
NoSun, 
NoWind, 
0, 
4, 
-14.29651324,-5.5343123651, 0,
-15.75729214,-5.5343123651, 0,
-15.75729214,-5.5343123651, 3.5,
-14.29651324,-5.5343123651, 3.5;

BuildingSurface:Detailed, 
440_Partition_5_0_10003,
Wall, 5,
440,
Surface, 408_Partition_4_0_0, 
NoSun, 
NoWind, 
0, 
4, 
-15.75729214,-5.5343123651, 0,
-14.29651324,-5.5343123651, 0,
-14.29651324,-5.5343123651, 3.5,
-15.75729214,-5.5343123651, 3.5;

AirflowNetwork:MultiZone:Surface:Crack, 
408_Partition_4_0_0, 
.0051127,
.75,
Reference Crack Conditions;

AirflowNetwork:MultiZone:Surface,
408_Partition_4_0_0, 
408_Partition_4_0_0, 
, 
1; 

BuildingSurface:Detailed, 
408_Partition_5_0_0,
Wall, 4,
408,
Surface, 440_Partition_4_0_10004, 
NoSun, 
NoWind, 
0, 
4, 
-15.7572921445,-5.53431237, 0,
-15.7572921445,-4.05076664, 0,
-15.7572921445,-4.05076664, 3.5,
-15.7572921445,-5.53431237, 3.5;

BuildingSurface:Detailed, 
440_Partition_4_0_10004,
Wall, 5,
440,
Surface, 408_Partition_5_0_0, 
NoSun, 
NoWind, 
0, 
4, 
-15.7572921445,-4.05076664, 0,
-15.7572921445,-5.53431237, 0,
-15.7572921445,-5.53431237, 3.5,
-15.7572921445,-4.05076664, 3.5;

AirflowNetwork:MultiZone:Surface:Crack, 
408_Partition_5_0_0, 
.0051924,
.75,
Reference Crack Conditions;

AirflowNetwork:MultiZone:Surface,
408_Partition_5_0_0, 
408_Partition_5_0_0, 
, 
1; 

BuildingSurface:Detailed, 
408_Partition_6_0_0,
Wall, 5,
408,
Surface, 418_Partition_8_0_10005, 
NoSun, 
NoWind, 
0, 
4, 
-15.75729214,-4.0507666401, 0,
-18.14188425,-4.0507666401, 0,
-18.14188425,-4.0507666401, 3.5,
-15.75729214,-4.0507666401, 3.5;

BuildingSurface:Detailed, 
418_Partition_8_0_10005,
Wall, 4,
418,
Surface, 408_Partition_6_0_0, 
NoSun, 
NoWind, 
0, 
4, 
-18.14188425,-4.0507666401, 0,
-15.75729214,-4.0507666401, 0,
-15.75729214,-4.0507666401, 3.5,
-18.14188425,-4.0507666401, 3.5;

AirflowNetwork:MultiZone:Surface:Crack, 
408_Partition_6_0_0, 
.0083461,
.75,
Reference Crack Conditions;

AirflowNetwork:MultiZone:Surface,
408_Partition_6_0_0, 
408_Partition_6_0_0, 
, 
1; 

BuildingSurface:Detailed, 
408_Wall_7_0_0,
Wall, 8,
408,
Outdoors, , 
SunExposed, 
WindExposed, 
.5, 
4, 
-18.141884248,-4.0507666401, 0,
-18.141884248,-9.5343123651, 0,
-18.141884248,-9.5343123651, 3.5,
-18.141884248,-4.0507666401, 3.5;

AirflowNetwork:MultiZone:Surface:Crack, 
408_Wall_7_0_0, 
.0001919,
.7,
Reference Crack Conditions;

AirflowNetwork:MultiZone:Surface,
408_Wall_7_0_0, 
408_Wall_7_0_0, 
408_Wall_7_0_0, 
1; 

AirflowNetwork:MultiZone:ExternalNode,
408_Wall_7_0_0,
2.33,
408_Wall_7_0_0;

AirflowNetwork:MultiZone:WindPressureCoefficientValues,
408_Wall_7_0_0, 
Cp Data, 
-.3,
-.35,
-.2,
-.35,
-.3,
 .1,
 .4,
 .1;

BuildingSurface:Detailed, 
408_Wall_8_0_0,
Wall, 8,
408,
Outdoors, , 
SunExposed, 
WindExposed, 
.5, 
4, 
-18.141884248,-9.5343123651, 0,
-13.661884248,-9.5343123651, 0,
-13.661884248,-9.5343123651, 3.5,
-18.141884248,-9.5343123651, 3.5;

AirflowNetwork:MultiZone:Surface:Crack, 
408_Wall_8_0_0, 
.0001407,
.7,
Reference Crack Conditions;

AirflowNetwork:MultiZone:Surface,
408_Wall_8_0_0, 
408_Wall_8_0_0, 
408_Wall_8_0_0, 
1; 

AirflowNetwork:MultiZone:ExternalNode,
408_Wall_8_0_0,
2.33,
408_Wall_8_0_0;

AirflowNetwork:MultiZone:WindPressureCoefficientValues,
408_Wall_8_0_0, 
Cp Data, 
-.2,
-.35,
-.3,
 .1,
 .4,
 .1,
-.3,
-.35;

FenestrationSurface:Detailed, 408_Wall_8_0_0_0_0_0_Win,
Window, 
1001,
408_Wall_8_0_0,
,
.5, 
1001, 
1, 
1, 
4, 
-16.46599333,-9.5343123651, .9351944,
-15.32703497,-9.5343123651, .9351944,
-15.32703497,-9.5343123651, 2.35097307,
-16.46599333,-9.5343123651, 2.35097307;

AirflowNetwork:MultiZone:Component:DetailedOpening, 
408_Wall_8_0_0_0_0_0_Win, 
.00001,
.7,
NonPivoted,
0,
2,
0,
.65,
0,
1,
0,
1,
.65,
.05,
1,
0,
0,
0,
0,
0,
0,
0,
0,
0,
0,
0;

AirflowNetwork:MultiZone:Surface,
408_Wall_8_0_0_0_0_0_Win, 
408_Wall_8_0_0_0_0_0_Win, 
408_Wall_8_0_0_0_0_0_Win, 
1, 
Temperature, 
20001, 
, 
, 
, 
, 
, 
408WindowState;

AirflowNetwork:MultiZone:ExternalNode,
408_Wall_8_0_0_0_0_0_Win,
2.19,
408_Wall_8_0_0_0_0_0_Win;

AirflowNetwork:MultiZone:WindPressureCoefficientValues,
408_Wall_8_0_0_0_0_0_Win, 
Cp Data, 
-.2,
-.35,
-.3,
 .1,
 .4,
 .1,
-.3,
-.35;

Zone, 418,
0,
0,
0,
0,
1 ,
1,
,
 172.1359,
 49.1817,
TARP;


PEOPLE, People 418,
418,
418NumberOfOccupants,
People,
 .9224668672551,
,
,
 .3,
AUTOCALCULATE,
418AverageGains,
.0000000382,
No,
ZoneAveraged,
,
Work efficiency,
ClothingInsulationSchedule,
,
Clothing Schedule 418,
AirVelocitySchedule;

Schedule:Compact, Activity Schedule 418,
Any Number,
Through: 12/31,
For: AllDays,
Until: 24:00,  99;

Schedule:Compact, Clothing Schedule 418,
Any Number,
Through: 4/1,
For: AllDays,
Until: 24:00,  1,
Through: 9/30,
For: AllDays,
Until: 24:00,  .5,
Through: 12/31,
For: AllDays,
Until: 24:00,  1;

Lights, 418 General lighting,
418,
418LightState,
LightingLevel,
368.8628,
,
,
0,
.42,
.18,
1,
ELECTRIC EQUIPMENT#418#GeneralLights;

ElectricEquipment, 418 Equipment 1,
418,
3349,
EquipmentLevel,
191.8086,
,
,
0,
.2,
0,
ELECTRIC EQUIPMENT#418#05;

Daylighting:Controls, 418,
1,
-10.082,
-7.034,
.8,
,
,
,
1,
0,
150,
300,
1,
0,
22,
0.1,
0.1,
0,
1;

AirflowNetwork:MultiZone:Zone,
418, 
Temperature,
20001,
, 
, 
, 
, 
, 
2864;


BuildingSurface:Detailed, 
418_GroundFloor_0_0_0,
Floor, 2659 - 1,
418,
GroundFCfactorMethod, , 
NoSun, 
NoWind, 
0, 
4, 
-6.229635178,-4.0507666351, 0,
-7.501884248,-4.0507666351, 0,
-7.501884248,-2.1943123651, 0,
-6.229635178,-2.1943123651, 0;

BuildingSurface:Detailed, 
418_GroundFloor_0_0_1,
Floor, 2659 - 1,
418,
GroundFCfactorMethod, , 
NoSun, 
NoWind, 
0, 
4, 
-7.501884248,-9.5343123651, 0,
-13.661884248,-9.5343123651, 0,
-13.661884248,-5.5343123651, 0,
-7.501884248,-5.5343123651, 0;

BuildingSurface:Detailed, 
418_GroundFloor_0_0_2,
Floor, 2659 - 1,
418,
GroundFCfactorMethod, , 
NoSun, 
NoWind, 
0, 
4, 
-7.501884248,-5.5343123651, 0,
-14.296513238,-5.5343123651, 0,
-14.296513238,-4.0507666351, 0,
-7.501884248,-4.0507666351, 0;

BuildingSurface:Detailed, 
418_GroundFloor_0_0_3,
Floor, 2659 - 1,
418,
GroundFCfactorMethod, , 
NoSun, 
NoWind, 
0, 
4, 
-7.501884248,-4.0507666351, 0,
-18.141884248,-4.0507666351, 0,
-18.141884248,-2.1943123651, 0,
-7.501884248,-2.1943123651, 0;

BuildingSurface:Detailed, 
418_Roof_1_0_0,
Roof, 2,
418,
Outdoors, , 
SunExposed, 
WindExposed, 
0, 
4, 
-18.141884248,-4.0507666351, 3.5,
-14.296513238,-4.0507666351, 3.5,
-14.296513238,-2.1943123651, 3.5,
-18.141884248,-2.1943123651, 3.5;

AirflowNetwork:MultiZone:Surface:Crack, 
418_Roof_1_0_0, 
.0000714,
.7,
Reference Crack Conditions;

AirflowNetwork:MultiZone:Surface,
418_Roof_1_0_0, 
418_Roof_1_0_0, 
418_Roof_1_0_0, 
1; 

AirflowNetwork:MultiZone:ExternalNode,
418_Roof_1_0_0,
4.67,
418_Roof_1_0_0;

AirflowNetwork:MultiZone:WindPressureCoefficientValues,
418_Roof_1_0_0, 
Cp Data, 
-.6,
-.5,
-.4,
-.5,
-.6,
-.5,
-.4,
-.5;

BuildingSurface:Detailed, 
418_Roof_1_0_1,
Roof, 2,
418,
Outdoors, , 
SunExposed, 
WindExposed, 
0, 
4, 
-14.296513238,-5.5343123651, 3.5,
-13.661884248,-5.5343123651, 3.5,
-13.661884248,-2.1943123651, 3.5,
-14.296513238,-2.1943123651, 3.5;

AirflowNetwork:MultiZone:Surface:Crack, 
418_Roof_1_0_1, 
.0000212,
.7,
Reference Crack Conditions;

AirflowNetwork:MultiZone:Surface,
418_Roof_1_0_1, 
418_Roof_1_0_1, 
418_Roof_1_0_1, 
1; 

AirflowNetwork:MultiZone:ExternalNode,
418_Roof_1_0_1,
4.67,
418_Roof_1_0_1;

AirflowNetwork:MultiZone:WindPressureCoefficientValues,
418_Roof_1_0_1, 
Cp Data, 
-.6,
-.5,
-.4,
-.5,
-.6,
-.5,
-.4,
-.5;

BuildingSurface:Detailed, 
418_Roof_1_0_2,
Roof, 2,
418,
Outdoors, , 
SunExposed, 
WindExposed, 
0, 
4, 
-13.661884248,-9.5343123651, 3.5,
-7.501884248,-9.5343123651, 3.5,
-7.501884248,-4.0507666351, 3.5,
-13.661884248,-4.0507666351, 3.5;

AirflowNetwork:MultiZone:Surface:Crack, 
418_Roof_1_0_2, 
.0003378,
.7,
Reference Crack Conditions;

AirflowNetwork:MultiZone:Surface,
418_Roof_1_0_2, 
418_Roof_1_0_2, 
418_Roof_1_0_2, 
1; 

AirflowNetwork:MultiZone:ExternalNode,
418_Roof_1_0_2,
4.67,
418_Roof_1_0_2;

AirflowNetwork:MultiZone:WindPressureCoefficientValues,
418_Roof_1_0_2, 
Cp Data, 
-.6,
-.5,
-.4,
-.5,
-.6,
-.5,
-.4,
-.5;

BuildingSurface:Detailed, 
418_Roof_1_0_3,
Roof, 2,
418,
Outdoors, , 
SunExposed, 
WindExposed, 
0, 
4, 
-13.661884248,-4.0507666351, 3.5,
-6.229635178,-4.0507666351, 3.5,
-6.229635178,-2.1943123651, 3.5,
-13.661884248,-2.1943123651, 3.5;

AirflowNetwork:MultiZone:Surface:Crack, 
418_Roof_1_0_3, 
.000138,
.7,
Reference Crack Conditions;

AirflowNetwork:MultiZone:Surface,
418_Roof_1_0_3, 
418_Roof_1_0_3, 
418_Roof_1_0_3, 
1; 

AirflowNetwork:MultiZone:ExternalNode,
418_Roof_1_0_3,
4.67,
418_Roof_1_0_3;

AirflowNetwork:MultiZone:WindPressureCoefficientValues,
418_Roof_1_0_3, 
Cp Data, 
-.6,
-.5,
-.4,
-.5,
-.6,
-.5,
-.4,
-.5;

BuildingSurface:Detailed, 
418_Partition_2_0_0,
Wall, 4,
418,
Surface, 433_Partition_4_0_10006, 
NoSun, 
NoWind, 
0, 
4, 
-7.501884248,-9.53431237, 0,
-7.501884248,-6.7925395, 0,
-7.501884248,-6.7925395, 3.5,
-7.501884248,-9.53431237, 3.5;

BuildingSurface:Detailed, 
433_Partition_4_0_10006,
Wall, 5,
433,
Surface, 418_Partition_2_0_0, 
NoSun, 
NoWind, 
0, 
4, 
-7.501884248,-6.7925395, 0,
-7.501884248,-9.53431237, 0,
-7.501884248,-9.53431237, 3.5,
-7.501884248,-6.7925395, 3.5;

AirflowNetwork:MultiZone:Surface:Crack, 
418_Partition_2_0_0, 
.0088583,
.75,
Reference Crack Conditions;

AirflowNetwork:MultiZone:Surface,
418_Partition_2_0_0, 
418_Partition_2_0_0, 
, 
1; 

FenestrationSurface:Detailed, 418_Partition_2_0_0_0_0_0_Door,
Door, 6,
418_Partition_2_0_0,
433_Partition_4_0_0_0_0_0_Door_10008,
0, 
, 
, 
1, 
4, 
-7.501884248,-8.69231237, .002,
-7.501884248,-8.3398905, .002,
-7.501884248,-8.3398905, 2.09582192,
-7.501884248,-8.69231237, 2.09582192;

FenestrationSurface:Detailed, 433_Partition_4_0_0_0_0_0_Door_10008,
Door, 7,
433_Partition_4_0_10006,
418_Partition_2_0_0_0_0_0_Door,
0, 
, 
, 
1, 
4, 
-7.501884248,-8.3398905, .002,
-7.501884248,-8.69231237, .002,
-7.501884248,-8.69231237, 2.09582192,
-7.501884248,-8.3398905, 2.09582192;

AirflowNetwork:MultiZone:Component:DetailedOpening, 
418_Partition_2_0_0_0_0_0_Door, 
.02,
.7,
NonPivoted,
0,
2,
0,
.65,
0,
1,
0,
1,
.65,
.025,
1,
0,
0,
0,
0,
0,
0,
0,
0,
0,
0,
0;

AirflowNetwork:MultiZone:Surface,
418_Partition_2_0_0_0_0_0_Door, 
418_Partition_2_0_0_0_0_0_Door, 
, 
1, 
Temperature, 
20001, 
, 
, 
, 
, 
, 
2864;

BuildingSurface:Detailed, 
418_Partition_3_0_0,
Wall, 4,
418,
Surface, 447_Partition_5_0_10008, 
NoSun, 
NoWind, 
0, 
4, 
-7.501884248,-6.7925395, 0,
-7.501884248,-4.05076664, 0,
-7.501884248,-4.05076664, 3.5,
-7.501884248,-6.7925395, 3.5;

BuildingSurface:Detailed, 
447_Partition_5_0_10008,
Wall, 5,
447,
Surface, 418_Partition_3_0_0, 
NoSun, 
NoWind, 
0, 
4, 
-7.501884248,-4.05076664, 0,
-7.501884248,-6.7925395, 0,
-7.501884248,-6.7925395, 3.5,
-7.501884248,-4.05076664, 3.5;

AirflowNetwork:MultiZone:Surface:Crack, 
418_Partition_3_0_0, 
.0095962,
.75,
Reference Crack Conditions;
